FoamFile { version 2.0; format ascii; class dictionary; object transportProperties; }
transportModel  Newtonian;
nu              [0 2 -1 0 0 0 0] 6.58e-07;   // water ~40 C: mu/rho = 6.53e-4/992
